<?xml version="1.0"?>

<!--
// Copyright (C) 2011 Christoph Sommer <sommer@ccs-labs.org>
//
// Documentation for these modules is at http://veins.car2x.org/
//
// SPDX-License-Identifier: (GPL-2.0-or-later OR CC-BY-SA-4.0)
//
// This program is free software; you can redistribute it and/or modify
// it under the terms of the GNU General Public License as published by
// the Free Software Foundation; either version 2 of the License, or
// (at your option) any later version.
//
// This program is distributed in the hope that it will be useful,
// but WITHOUT ANY WARRANTY; without even the implied warranty of
// MERCHANTABILITY or FITNESS FOR A PARTICULAR PURPOSE.  See the
// GNU General Public License for more details.
//
// You should have received a copy of the GNU General Public License
// along with this program; if not, write to the Free Software
// Foundation, Inc., 59 Temple Place, Suite 330, Boston, MA  02111-1307  USA
//
// -
//
// At your option, you can also redistribute and/or modify this file
// under a
// Creative Commons Attribution-ShareAlike 4.0 International License.
//
// You should have received a copy of the license along with this
// work.  If not, see <http://creativecommons.org/licenses/by-sa/4.0/>.
-->

<!--
194 Cars leaving the Computer Science Building and campus of the University of Erlangen-Nuremberg
-->

<routes>
   <vehicle id="test1" depart="00.10">
        <route edges="-39539626 -5445204#2 -5445204#1 113939244#2 -126606716 23339459 30405358#1 85355912 85355911#0 85355911#1 30405356 5931612 30350450#0 30350450#1 30350450#2 4006702#0 4006702#1 4900043 4900041#1"/>
   </vehicle>
   <vehicle id="test2" depart="00.20">
        <route edges="-39539626 -5445204#2 -5445204#1 113939244#2 -126606716 23339459 30405358#1 85355912 85355911#0 85355911#1 30405356 5931612 30350450#0 30350450#1 30350450#2 4006702#0 4006702#1 4900043 4900041#1"/>
   </vehicle>
   <vehicle id="test3" depart="00.30">
        <route edges="-39539626 -5445204#2 -5445204#1 113939244#2 -126606716 23339459 30405358#1 85355912 85355911#0 85355911#1 30405356 5931612 30350450#0 30350450#1 30350450#2 4006702#0 4006702#1 4900043 4900041#1"/>
   </vehicle>
   <vehicle id="test4" depart="00.40">
        <route edges="-39539626 -5445204#2 -5445204#1 113939244#2 -126606716 23339459 30405358#1 85355912 85355911#0 85355911#1 30405356 5931612 30350450#0 30350450#1 30350450#2 4006702#0 4006702#1 4900043 4900041#1"/>
   </vehicle>
   <vehicle id="test5" depart="00.50">
        <route edges="-39539626 -5445204#2 -5445204#1 113939244#2 -126606716 23339459 30405358#1 85355912 85355911#0 85355911#1 30405356 5931612 30350450#0 30350450#1 30350450#2 4006702#0 4006702#1 4900043 4900041#1"/>
   </vehicle>
   <vehicle id="test6" depart="00.60">
        <route edges="-39539626 -5445204#2 -5445204#1 113939244#2 -126606716 23339459 30405358#1 85355912 85355911#0 85355911#1 30405356 5931612 30350450#0 30350450#1 30350450#2 4006702#0 4006702#1 4900043 4900041#1"/>
   </vehicle>
   <vehicle id="test7" depart="00.70">
        <route edges="-39539626 -5445204#2 -5445204#1 113939244#2 -126606716 23339459 30405358#1 85355912 85355911#0 85355911#1 30405356 5931612 30350450#0 30350450#1 30350450#2 4006702#0 4006702#1 4900043 4900041#1"/>
   </vehicle>
   <vehicle id="test8" depart="00.80">
        <route edges="-39539626 -5445204#2 -5445204#1 113939244#2 -126606716 23339459 30405358#1 85355912 85355911#0 85355911#1 30405356 5931612 30350450#0 30350450#1 30350450#2 4006702#0 4006702#1 4900043 4900041#1"/>
   </vehicle>
   <vehicle id="test9" depart="00.90">
        <route edges="-39539626 -5445204#2 -5445204#1 113939244#2 -126606716 23339459 30405358#1 85355912 85355911#0 85355911#1 30405356 5931612 30350450#0 30350450#1 30350450#2 4006702#0 4006702#1 4900043 4900041#1"/>
   </vehicle>
   <vehicle id="test10" depart="01.00">
        <route edges="-39539626 -5445204#2 -5445204#1 113939244#2 -126606716 23339459 30405358#1 85355912 85355911#0 85355911#1 30405356 5931612 30350450#0 30350450#1 30350450#2 4006702#0 4006702#1 4900043 4900041#1"/>
   </vehicle>
   <vehicle id="test11" depart="01.10">
        <route edges="-39539626 -5445204#2 -5445204#1 113939244#2 -126606716 23339459 30405358#1 85355912 85355911#0 85355911#1 30405356 5931612 30350450#0 30350450#1 30350450#2 4006702#0 4006702#1 4900043 4900041#1"/>
   </vehicle>
   <vehicle id="test12" depart="01.20">
        <route edges="-39539626 -5445204#2 -5445204#1 113939244#2 -126606716 23339459 30405358#1 85355912 85355911#0 85355911#1 30405356 5931612 30350450#0 30350450#1 30350450#2 4006702#0 4006702#1 4900043 4900041#1"/>
   </vehicle>
   <vehicle id="test13" depart="01.30">
        <route edges="-39539626 -5445204#2 -5445204#1 113939244#2 -126606716 23339459 30405358#1 85355912 85355911#0 85355911#1 30405356 5931612 30350450#0 30350450#1 30350450#2 4006702#0 4006702#1 4900043 4900041#1"/>
   </vehicle>
   <vehicle id="test14" depart="01.40">
        <route edges="-39539626 -5445204#2 -5445204#1 113939244#2 -126606716 23339459 30405358#1 85355912 85355911#0 85355911#1 30405356 5931612 30350450#0 30350450#1 30350450#2 4006702#0 4006702#1 4900043 4900041#1"/>
   </vehicle>
   <vehicle id="test15" depart="01.50">
        <route edges="-39539626 -5445204#2 -5445204#1 113939244#2 -126606716 23339459 30405358#1 85355912 85355911#0 85355911#1 30405356 5931612 30350450#0 30350450#1 30350450#2 4006702#0 4006702#1 4900043 4900041#1"/>
   </vehicle>
   <vehicle id="test16" depart="01.60">
        <route edges="-39539626 -5445204#2 -5445204#1 113939244#2 -126606716 23339459 30405358#1 85355912 85355911#0 85355911#1 30405356 5931612 30350450#0 30350450#1 30350450#2 4006702#0 4006702#1 4900043 4900041#1"/>
   </vehicle>
   <vehicle id="test17" depart="01.70">
        <route edges="-39539626 -5445204#2 -5445204#1 113939244#2 -126606716 23339459 30405358#1 85355912 85355911#0 85355911#1 30405356 5931612 30350450#0 30350450#1 30350450#2 4006702#0 4006702#1 4900043 4900041#1"/>
   </vehicle>
   <vehicle id="test18" depart="01.80">
        <route edges="-39539626 -5445204#2 -5445204#1 113939244#2 -126606716 23339459 30405358#1 85355912 85355911#0 85355911#1 30405356 5931612 30350450#0 30350450#1 30350450#2 4006702#0 4006702#1 4900043 4900041#1"/>
   </vehicle>
   <vehicle id="test19" depart="01.90">
        <route edges="-39539626 -5445204#2 -5445204#1 113939244#2 -126606716 23339459 30405358#1 85355912 85355911#0 85355911#1 30405356 5931612 30350450#0 30350450#1 30350450#2 4006702#0 4006702#1 4900043 4900041#1"/>
   </vehicle>
   <vehicle id="test20" depart="02.00">
        <route edges="-39539626 -5445204#2 -5445204#1 113939244#2 -126606716 23339459 30405358#1 85355912 85355911#0 85355911#1 30405356 5931612 30350450#0 30350450#1 30350450#2 4006702#0 4006702#1 4900043 4900041#1"/>
   </vehicle>
   <vehicle id="test21" depart="02.10">
        <route edges="-4099270#1 3998615#3 3998645#2 30350450#1 -3998643#2 -3998643#1 -3998643#0 -3998612#1"/>
   </vehicle>
   <vehicle id="test22" depart="02.20">
        <route edges="-4099270#1 3998615#3 3998645#2 30350450#1 -3998643#2 -3998643#1 -3998643#0 -3998612#1"/>
   </vehicle>
   <vehicle id="test23" depart="02.30">
        <route edges="-4099270#1 3998615#3 3998645#2 30350450#1 -3998643#2 -3998643#1 -3998643#0 -3998612#1"/>
   </vehicle>
   <vehicle id="test24" depart="02.40">
        <route edges="-4099270#1 3998615#3 3998645#2 30350450#1 -3998643#2 -3998643#1 -3998643#0 -3998612#1"/>
   </vehicle>
   <vehicle id="test25" depart="02.50">
        <route edges="-4099270#1 3998615#3 3998645#2 30350450#1 -3998643#2 -3998643#1 -3998643#0 -3998612#1"/>
   </vehicle>
   <vehicle id="test26" depart="02.60">
        <route edges="-4099270#1 3998615#3 3998645#2 30350450#1 -3998643#2 -3998643#1 -3998643#0 -3998612#1"/>
   </vehicle>
   <vehicle id="test27" depart="02.70">
        <route edges="-4099270#1 3998615#3 3998645#2 30350450#1 -3998643#2 -3998643#1 -3998643#0 -3998612#1"/>
   </vehicle>
   <vehicle id="test28" depart="02.80">
        <route edges="-4099270#1 3998615#3 3998645#2 30350450#1 -3998643#2 -3998643#1 -3998643#0 -3998612#1"/>
   </vehicle>
   <vehicle id="test29" depart="02.90">
        <route edges="-4099270#1 3998615#3 3998645#2 30350450#1 -3998643#2 -3998643#1 -3998643#0 -3998612#1"/>
   </vehicle>
   <vehicle id="test30" depart="03.00">
        <route edges="-4099270#1 3998615#3 3998645#2 30350450#1 -3998643#2 -3998643#1 -3998643#0 -3998612#1"/>
   </vehicle>
   <vehicle id="test31" depart="03.10">
        <route edges="-4099270#1 3998615#3 3998645#2 30350450#1 -3998643#2 -3998643#1 -3998643#0 -3998612#1"/>
   </vehicle>
   <vehicle id="test32" depart="03.20">
        <route edges="-4099270#1 3998615#3 3998645#2 30350450#1 -3998643#2 -3998643#1 -3998643#0 -3998612#1"/>
   </vehicle>
   <vehicle id="test33" depart="03.30">
        <route edges="-4099270#1 3998615#3 3998645#2 30350450#1 -3998643#2 -3998643#1 -3998643#0 -3998612#1"/>
   </vehicle>
   <vehicle id="test34" depart="03.40">
        <route edges="-4099270#1 3998615#3 3998645#2 30350450#1 -3998643#2 -3998643#1 -3998643#0 -3998612#1"/>
   </vehicle>
   <vehicle id="test35" depart="03.50">
        <route edges="-4099270#1 3998615#3 3998645#2 30350450#1 -3998643#2 -3998643#1 -3998643#0 -3998612#1"/>
   </vehicle>
   <vehicle id="test36" depart="03.60">
        <route edges="-4099270#1 3998615#3 3998645#2 30350450#1 -3998643#2 -3998643#1 -3998643#0 -3998612#1"/>
   </vehicle>
   <vehicle id="test37" depart="03.70">
        <route edges="-4099270#1 3998615#3 3998645#2 30350450#1 -3998643#2 -3998643#1 -3998643#0 -3998612#1"/>
   </vehicle>
   <vehicle id="test38" depart="03.80">
        <route edges="-4099270#1 3998615#3 3998645#2 30350450#1 -3998643#2 -3998643#1 -3998643#0 -3998612#1"/>
   </vehicle>
   <vehicle id="test39" depart="03.90">
        <route edges="-4099270#1 3998615#3 3998645#2 30350450#1 -3998643#2 -3998643#1 -3998643#0 -3998612#1"/>
   </vehicle>
   <vehicle id="test40" depart="04.00">
        <route edges="-4099270#1 3998615#3 3998645#2 30350450#1 -3998643#2 -3998643#1 -3998643#0 -3998612#1"/>
   </vehicle>
   <vehicle id="test41" depart="04.10">
        <route edges="4006703#0 4006703#1 28269598 -4006702#2 -4006702#1 -4006702#0 4319352#1"/>
   </vehicle>
   <vehicle id="test42" depart="04.20">
        <route edges="4006703#0 4006703#1 28269598 -4006702#2 -4006702#1 -4006702#0 4319352#1"/>
   </vehicle>
   <vehicle id="test43" depart="04.30">
        <route edges="4006703#0 4006703#1 28269598 -4006702#2 -4006702#1 -4006702#0 4319352#1"/>
   </vehicle>
   <vehicle id="test44" depart="04.40">
        <route edges="4006703#0 4006703#1 28269598 -4006702#2 -4006702#1 -4006702#0 4319352#1"/>
   </vehicle>
   <vehicle id="test45" depart="04.50">
        <route edges="4006703#0 4006703#1 28269598 -4006702#2 -4006702#1 -4006702#0 4319352#1"/>
   </vehicle>
   <vehicle id="test46" depart="04.60">
        <route edges="4006703#0 4006703#1 28269598 -4006702#2 -4006702#1 -4006702#0 4319352#1"/>
   </vehicle>
   <vehicle id="test47" depart="04.70">
        <route edges="4006703#0 4006703#1 28269598 -4006702#2 -4006702#1 -4006702#0 4319352#1"/>
   </vehicle>
   <vehicle id="test48" depart="04.80">
        <route edges="4006703#0 4006703#1 28269598 -4006702#2 -4006702#1 -4006702#0 4319352#1"/>
   </vehicle>
   <vehicle id="test49" depart="04.90">
        <route edges="4006703#0 4006703#1 28269598 -4006702#2 -4006702#1 -4006702#0 4319352#1"/>
   </vehicle>
   <vehicle id="test50" depart="05.00">
        <route edges="4006703#0 4006703#1 28269598 -4006702#2 -4006702#1 -4006702#0 4319352#1"/>
   </vehicle>
   <vehicle id="test51" depart="05.10">
        <route edges="4006703#0 4006703#1 28269598 -4006702#2 -4006702#1 -4006702#0 4319352#1"/>
   </vehicle>
   <vehicle id="test52" depart="05.20">
        <route edges="4006703#0 4006703#1 28269598 -4006702#2 -4006702#1 -4006702#0 4319352#1"/>
   </vehicle>
   <vehicle id="test53" depart="05.30">
        <route edges="4006703#0 4006703#1 28269598 -4006702#2 -4006702#1 -4006702#0 4319352#1"/>
   </vehicle>
   <vehicle id="test54" depart="05.40">
        <route edges="4006703#0 4006703#1 28269598 -4006702#2 -4006702#1 -4006702#0 4319352#1"/>
   </vehicle>
   <vehicle id="test55" depart="05.50">
        <route edges="4006703#0 4006703#1 28269598 -4006702#2 -4006702#1 -4006702#0 4319352#1"/>
   </vehicle>
   <vehicle id="test56" depart="05.60">
        <route edges="4006703#0 4006703#1 28269598 -4006702#2 -4006702#1 -4006702#0 4319352#1"/>
   </vehicle>
   <vehicle id="test57" depart="05.70">
        <route edges="4006703#0 4006703#1 28269598 -4006702#2 -4006702#1 -4006702#0 4319352#1"/>
   </vehicle>
   <vehicle id="test58" depart="05.80">
        <route edges="4006703#0 4006703#1 28269598 -4006702#2 -4006702#1 -4006702#0 4319352#1"/>
   </vehicle>
   <vehicle id="test59" depart="05.90">
        <route edges="4006703#0 4006703#1 28269598 -4006702#2 -4006702#1 -4006702#0 4319352#1"/>
   </vehicle>
   <vehicle id="test60" depart="06.00">
        <route edges="4006703#0 4006703#1 28269598 -4006702#2 -4006702#1 -4006702#0 4319352#1"/>
   </vehicle>
   <vehicle id="test61" depart="06.10">
        <route edges="10573414#0 10573414#1 3013106#0 3013106#1 3013106#2 4319353"/>
   </vehicle>
   <vehicle id="test62" depart="06.20">
        <route edges="10573414#0 10573414#1 3013106#0 3013106#1 3013106#2 4319353"/>
   </vehicle>
   <vehicle id="test63" depart="06.30">
        <route edges="10573414#0 10573414#1 3013106#0 3013106#1 3013106#2 4319353"/>
   </vehicle>
   <vehicle id="test64" depart="06.40">
        <route edges="10573414#0 10573414#1 3013106#0 3013106#1 3013106#2 4319353"/>
   </vehicle>
   <vehicle id="test65" depart="06.50">
        <route edges="10573414#0 10573414#1 3013106#0 3013106#1 3013106#2 4319353"/>
   </vehicle>
   <vehicle id="test66" depart="06.60">
        <route edges="10573414#0 10573414#1 3013106#0 3013106#1 3013106#2 4319353"/>
   </vehicle>
   <vehicle id="test67" depart="06.70">
        <route edges="10573414#0 10573414#1 3013106#0 3013106#1 3013106#2 4319353"/>
   </vehicle>
   <vehicle id="test68" depart="06.80">
        <route edges="10573414#0 10573414#1 3013106#0 3013106#1 3013106#2 4319353"/>
   </vehicle>
   <vehicle id="test69" depart="06.90">
        <route edges="10573414#0 10573414#1 3013106#0 3013106#1 3013106#2 4319353"/>
   </vehicle>
   <vehicle id="test70" depart="07.00">
        <route edges="10573414#0 10573414#1 3013106#0 3013106#1 3013106#2 4319353"/>
   </vehicle>
   <vehicle id="test71" depart="07.10">
        <route edges="10573414#0 10573414#1 3013106#0 3013106#1 3013106#2 4319353"/>
   </vehicle>
   <vehicle id="test72" depart="07.20">
        <route edges="10573414#0 10573414#1 3013106#0 3013106#1 3013106#2 4319353"/>
   </vehicle>
   <vehicle id="test73" depart="07.30">
        <route edges="10573414#0 10573414#1 3013106#0 3013106#1 3013106#2 4319353"/>
   </vehicle>
   <vehicle id="test74" depart="07.40">
        <route edges="10573414#0 10573414#1 3013106#0 3013106#1 3013106#2 4319353"/>
   </vehicle>
   <vehicle id="test75" depart="07.50">
        <route edges="10573414#0 10573414#1 3013106#0 3013106#1 3013106#2 4319353"/>
   </vehicle>
   <vehicle id="test76" depart="07.60">
        <route edges="10573414#0 10573414#1 3013106#0 3013106#1 3013106#2 4319353"/>
   </vehicle>
   <vehicle id="test77" depart="07.70">
        <route edges="10573414#0 10573414#1 3013106#0 3013106#1 3013106#2 4319353"/>
   </vehicle>
   <vehicle id="test78" depart="07.80">
        <route edges="10573414#0 10573414#1 3013106#0 3013106#1 3013106#2 4319353"/>
   </vehicle>
   <vehicle id="test79" depart="07.90">
        <route edges="10573414#0 10573414#1 3013106#0 3013106#1 3013106#2 4319353"/>
   </vehicle>
   <vehicle id="test80" depart="08.00">
        <route edges="10573414#0 10573414#1 3013106#0 3013106#1 3013106#2 4319353"/>
   </vehicle>
   <vehicle id="test81" depart="08.10">
        <route edges="-10425131 -10425130 4006688#2 4006688#3 4006688#4 -8403001 -4006674#4 -4006674#3 -4006674#2 -4006674#1 -4006674#0"/>
   </vehicle>
   <vehicle id="test82" depart="08.20">
        <route edges="-10425131 -10425130 4006688#2 4006688#3 4006688#4 -8403001 -4006674#4 -4006674#3 -4006674#2 -4006674#1 -4006674#0"/>
   </vehicle>
   <vehicle id="test83" depart="08.30">
        <route edges="-10425131 -10425130 4006688#2 4006688#3 4006688#4 -8403001 -4006674#4 -4006674#3 -4006674#2 -4006674#1 -4006674#0"/>
   </vehicle>
   <vehicle id="test84" depart="08.40">
        <route edges="-10425131 -10425130 4006688#2 4006688#3 4006688#4 -8403001 -4006674#4 -4006674#3 -4006674#2 -4006674#1 -4006674#0"/>
   </vehicle>
   <vehicle id="test85" depart="08.50">
        <route edges="-10425131 -10425130 4006688#2 4006688#3 4006688#4 -8403001 -4006674#4 -4006674#3 -4006674#2 -4006674#1 -4006674#0"/>
   </vehicle>
   <vehicle id="test86" depart="08.60">
        <route edges="-10425131 -10425130 4006688#2 4006688#3 4006688#4 -8403001 -4006674#4 -4006674#3 -4006674#2 -4006674#1 -4006674#0"/>
   </vehicle>
   <vehicle id="test87" depart="08.70">
        <route edges="-10425131 -10425130 4006688#2 4006688#3 4006688#4 -8403001 -4006674#4 -4006674#3 -4006674#2 -4006674#1 -4006674#0"/>
   </vehicle>
   <vehicle id="test88" depart="08.80">
        <route edges="-10425131 -10425130 4006688#2 4006688#3 4006688#4 -8403001 -4006674#4 -4006674#3 -4006674#2 -4006674#1 -4006674#0"/>
   </vehicle>
   <vehicle id="test89" depart="08.90">
        <route edges="-10425131 -10425130 4006688#2 4006688#3 4006688#4 -8403001 -4006674#4 -4006674#3 -4006674#2 -4006674#1 -4006674#0"/>
   </vehicle>
   <vehicle id="test90" depart="09.00">
        <route edges="-10425131 -10425130 4006688#2 4006688#3 4006688#4 -8403001 -4006674#4 -4006674#3 -4006674#2 -4006674#1 -4006674#0"/>
   </vehicle>
   <vehicle id="test91" depart="09.10">
        <route edges="-10425131 -10425130 4006688#2 4006688#3 4006688#4 -8403001 -4006674#4 -4006674#3 -4006674#2 -4006674#1 -4006674#0"/>
   </vehicle>
   <vehicle id="test92" depart="09.20">
        <route edges="-10425131 -10425130 4006688#2 4006688#3 4006688#4 -8403001 -4006674#4 -4006674#3 -4006674#2 -4006674#1 -4006674#0"/>
   </vehicle>
   <vehicle id="test93" depart="09.30">
        <route edges="-10425131 -10425130 4006688#2 4006688#3 4006688#4 -8403001 -4006674#4 -4006674#3 -4006674#2 -4006674#1 -4006674#0"/>
   </vehicle>
   <vehicle id="test94" depart="09.40">
        <route edges="-10425131 -10425130 4006688#2 4006688#3 4006688#4 -8403001 -4006674#4 -4006674#3 -4006674#2 -4006674#1 -4006674#0"/>
   </vehicle>
   <vehicle id="test95" depart="09.50">
        <route edges="-10425131 -10425130 4006688#2 4006688#3 4006688#4 -8403001 -4006674#4 -4006674#3 -4006674#2 -4006674#1 -4006674#0"/>
   </vehicle>
   <vehicle id="test96" depart="09.60">
        <route edges="-10425131 -10425130 4006688#2 4006688#3 4006688#4 -8403001 -4006674#4 -4006674#3 -4006674#2 -4006674#1 -4006674#0"/>
   </vehicle>
   <vehicle id="test97" depart="09.70">
        <route edges="-10425131 -10425130 4006688#2 4006688#3 4006688#4 -8403001 -4006674#4 -4006674#3 -4006674#2 -4006674#1 -4006674#0"/>
   </vehicle>
   <vehicle id="test98" depart="09.80">
        <route edges="-10425131 -10425130 4006688#2 4006688#3 4006688#4 -8403001 -4006674#4 -4006674#3 -4006674#2 -4006674#1 -4006674#0"/>
   </vehicle>
   <vehicle id="test99" depart="09.90">
        <route edges="-10425131 -10425130 4006688#2 4006688#3 4006688#4 -8403001 -4006674#4 -4006674#3 -4006674#2 -4006674#1 -4006674#0"/>
   </vehicle>
   <vehicle id="test100" depart="10.00">
        <route edges="-10425131 -10425130 4006688#2 4006688#3 4006688#4 -8403001 -4006674#4 -4006674#3 -4006674#2 -4006674#1 -4006674#0"/>
   </vehicle>
</routes>
